Circuit: * C:\Users\handr\Desktop\SCIA PROIECT!\Etaj 4.asc

Direct Newton iteration for .op point succeeded.

Date: Thu Jan 18 13:24:39 2024
Total elapsed time: 0.205 seconds.

tnom = 27
temp = 27
method = modified trap
totiter = 16489
traniter = 16474
tranpoints = 6264
accept = 4609
rejected = 1655
matrix size = 25
fillins = 33
solver = Normal
Avg thread counts: 1.2/1.6/1.6/1.2
Matrix Compiler1: 3.17 KB object code size  0.6/0.4/[0.2]
Matrix Compiler2: 3.31 KB object code size  0.3/0.3/[0.3]

