Circuit: * C:\Users\handr\Desktop\SCIA PROIECT!\Etaj 1.asc

Warning: Multiple definitions of model "2scr375p" Type: BJT
Warning: Multiple definitions of model "bc857b" Type: BJT
Warning: Multiple definitions of model "bc847c" Type: BJT
Warning: Multiple definitions of model "bc847b" Type: BJT
WARNING: Less than two connections to node va.  This node is used by vin1.
WARNING: Less than two connections to node vb.  This node is used by vin2.
WARNING: Less than two connections to node in2.  This node is used by v3.
Direct Newton iteration failed to find .op point.  (Use ".option noopiter" to skip.)
Starting Gmin stepping
Gmin = 10
Gmin = 1.07374
Gmin = 0.115292
Gmin = 0.0123794
Gmin = 0.00132923
Gmin = 0.000142725
Gmin = 1.5325e-05
Gmin = 1.6455e-06
Gmin = 1.76685e-07
Gmin = 1.89714e-08
Gmin = 2.03704e-09
Gmin = 2.18725e-10
Gmin = 2.34854e-11
Gmin = 2.52173e-12
Gmin = 2.70769e-13
Gmin = 0
Gmin stepping succeeded in finding the operating point.

N-Period=1
Fourier components of V(out1)
DC component:-0.000652426

Harmonic	Frequency	 Fourier 	Normalized	 Phase  	Normalized
 Number 	  [Hz]   	Component	 Component	[degree]	Phase [deg]
    1   	 2.000e+3	 1.896e+0	 1.000e+0	  -90.00°	    0.00°
    2   	 4.000e+3	 4.027e-4	 2.124e-4	    0.62°	   90.61°
    3   	 6.000e+3	 2.305e-4	 1.216e-4	  -90.87°	   -0.87°
    4   	 8.000e+3	 2.261e-4	 1.192e-4	   -2.54°	   87.46°
    5   	 1.000e+4	 1.211e-4	 6.390e-5	  -95.49°	   -5.50°
    6   	 1.200e+4	 1.569e-4	 8.274e-5	   -6.88°	   83.12°
    7   	 1.400e+4	 1.099e-5	 5.797e-6	   96.97°	  186.97°
    8   	 1.600e+4	 9.460e-6	 4.990e-6	  179.99°	  269.99°
    9   	 1.800e+4	 1.387e-5	 7.316e-6	   97.78°	  187.78°
   10   	 2.000e+4	 9.223e-5	 4.865e-5	  167.87°	  257.86°
Partial Harmonic Distortion: 0.029584%
Total Harmonic Distortion:   0.068325%



Date: Thu Jan 18 13:15:46 2024
Total elapsed time: 0.151 seconds.

tnom = 27
temp = 27
method = modified trap
totiter = 2949
traniter = 2584
tranpoints = 1293
accept = 1224
rejected = 69
matrix size = 35
fillins = 19
solver = Normal
Avg thread counts: 2.6/4.1/4.1/2.6
Matrix Compiler1: 2.42 KB object code size  0.7/0.4/[0.3]
Matrix Compiler2: off  [0.2]/0.3/0.3

